%mem=1GB
%NProcShared=10
#P m062x/cc-pvdz
# SCF=(xqc)
# Freq=()
# IOp(7/33=1)
# int=ultrafine
# fchk NoSym guess=mix

comment: 

0 1
O    1.152835  -0.242734  -0.016015
C    0.037179   0.439881  -0.001252
C   -1.271643  -0.223681  -0.033126
H    0.030613   1.423460  -0.530067
H   -0.114412   0.774722   1.098930
H   -1.331055  -1.295716   0.164983
H   -2.182930   0.375644  -0.070348
  Variables:

